Version 4
SHEET 1 1912 856
WIRE -80 -320 -672 -320
WIRE 192 -320 -80 -320
WIRE 768 -320 192 -320
WIRE 1104 -320 768 -320
WIRE -80 -272 -80 -320
WIRE 768 -272 768 -320
WIRE 192 -192 192 -320
WIRE 1104 -192 1104 -320
WIRE -80 -176 -80 -192
WIRE 0 -176 -80 -176
WIRE 144 -176 80 -176
WIRE 768 -176 768 -192
WIRE 848 -176 768 -176
WIRE 1056 -176 928 -176
WIRE -80 -160 -80 -176
WIRE -80 -160 -128 -160
WIRE 768 -160 768 -176
WIRE 768 -160 720 -160
WIRE -80 -128 -80 -160
WIRE 768 -128 768 -160
WIRE -288 -80 -432 -80
WIRE -192 -80 -192 -160
WIRE -192 -80 -208 -80
WIRE -144 -80 -192 -80
WIRE 560 -80 384 -80
WIRE 656 -80 656 -160
WIRE 656 -80 640 -80
WIRE 704 -80 656 -80
WIRE -432 -48 -432 -80
WIRE -432 -48 -512 -48
WIRE -512 32 -512 -48
WIRE -80 32 -80 -32
WIRE 768 32 768 -32
WIRE -672 64 -672 -320
WIRE -432 64 -432 -48
WIRE 496 64 -432 64
WIRE 192 128 192 -96
WIRE 1712 128 192 128
WIRE 1856 128 1712 128
WIRE -512 160 -512 112
WIRE 1856 160 1856 128
WIRE -48 176 -400 176
WIRE 848 176 -48 176
WIRE 1712 176 1712 128
WIRE -672 208 -672 144
WIRE 848 224 848 176
WIRE -320 272 -512 272
WIRE 384 272 384 -80
WIRE 384 272 -320 272
WIRE 1104 288 1104 -96
WIRE 1712 288 1712 240
WIRE 1712 288 1104 288
WIRE 1856 288 1856 240
WIRE 1856 288 1712 288
WIRE -512 304 -512 272
WIRE 848 320 848 304
WIRE 928 320 848 320
WIRE 1024 320 1008 320
WIRE 848 336 848 320
WIRE 848 336 800 336
WIRE -48 368 -48 176
WIRE 848 368 848 336
WIRE 192 384 192 128
WIRE 1104 384 1104 288
WIRE 496 416 496 64
WIRE 640 416 496 416
WIRE 736 416 736 336
WIRE 736 416 720 416
WIRE 784 416 736 416
WIRE -512 448 -512 384
WIRE -48 464 -48 448
WIRE 32 464 -48 464
WIRE 144 464 112 464
WIRE 1024 464 1024 320
WIRE 1056 464 1024 464
WIRE -48 480 -48 464
WIRE -48 480 -96 480
WIRE -48 512 -48 480
WIRE 848 528 848 464
WIRE -320 560 -320 272
WIRE -256 560 -320 560
WIRE -160 560 -160 480
WIRE -160 560 -176 560
WIRE -112 560 -160 560
WIRE 192 560 192 480
WIRE 368 560 192 560
WIRE 1104 560 1104 480
WIRE 1104 560 368 560
WIRE 368 656 368 560
WIRE -400 672 -400 176
WIRE -320 672 -400 672
WIRE -48 672 -48 608
WIRE -320 688 -320 672
WIRE -320 816 -320 768
WIRE 368 816 368 736
FLAG 368 816 0
FLAG -672 208 0
FLAG -512 160 0
FLAG -512 448 0
FLAG 768 32 0
FLAG -80 32 0
FLAG 848 528 0
FLAG -320 816 0
FLAG -48 672 0
SYMBOL nmos 144 384 R0
SYMATTR InstName M2
SYMATTR Value FDS3812
SYMBOL nmos 1056 384 R0
SYMATTR InstName M4
SYMATTR Value FDS3812
SYMBOL res 352 640 R0
SYMATTR InstName R1
SYMATTR Value 50m
SYMBOL cap 1696 176 R0
SYMATTR InstName C1
SYMATTR Value 1p
SYMBOL res 1840 144 R0
SYMATTR InstName R2
SYMATTR Value 5
SYMBOL voltage -672 48 R0
WINDOW 123 0 0 Left 2
WINDOW 39 24 124 Left 2
SYMATTR InstName V1
SYMATTR Value 18
SYMATTR SpiceLine Rser=10m
SYMBOL voltage -512 16 R0
WINDOW 123 0 0 Left 2
WINDOW 39 0 0 Left 2
SYMATTR InstName V2
SYMATTR Value PULSE(0 12 0 20n 20n 56u 112u)
SYMBOL voltage -512 288 R0
WINDOW 123 0 0 Left 2
WINDOW 39 0 0 Left 2
SYMATTR InstName V3
SYMATTR Value PULSE(0 12 56u 20n 20n 56u 112u)
SYMBOL res 944 -192 R90
WINDOW 0 0 56 VBottom 2
WINDOW 3 32 56 VTop 2
SYMATTR InstName R3
SYMATTR Value 10
SYMBOL res 128 448 R90
WINDOW 0 0 56 VBottom 2
WINDOW 3 32 56 VTop 2
SYMATTR InstName R5
SYMATTR Value 10
SYMBOL pmos 1056 -96 M180
SYMATTR InstName M1
SYMATTR Value FDS6975
SYMBOL pmos 144 -96 M180
SYMATTR InstName M3
SYMATTR Value FDS6975
SYMBOL npn 704 -128 R0
SYMATTR InstName Q1
SYMATTR Value 2N3904
SYMBOL res 752 -288 R0
SYMATTR InstName R6
SYMATTR Value 100
SYMBOL res 656 -96 R90
WINDOW 0 0 56 VBottom 2
WINDOW 3 32 56 VTop 2
SYMATTR InstName R7
SYMATTR Value 1k
SYMBOL res 96 -192 R90
WINDOW 0 0 56 VBottom 2
WINDOW 3 32 56 VTop 2
SYMATTR InstName R8
SYMATTR Value 10
SYMBOL npn -144 -128 R0
SYMATTR InstName Q2
SYMATTR Value 2N3904
SYMBOL res -96 -288 R0
SYMATTR InstName R9
SYMATTR Value 100
SYMBOL res -192 -96 R90
WINDOW 0 0 56 VBottom 2
WINDOW 3 32 56 VTop 2
SYMATTR InstName R10
SYMATTR Value 1k
SYMBOL schottky 656 -144 R270
WINDOW 0 32 32 VTop 2
WINDOW 3 0 32 VBottom 2
SYMATTR InstName D1
SYMATTR Value MBR0530L
SYMATTR Description Diode
SYMATTR Type diode
SYMBOL schottky -192 -144 R270
WINDOW 0 32 32 VTop 2
WINDOW 3 0 32 VBottom 2
SYMATTR InstName D2
SYMATTR Value MBR0530L
SYMATTR Description Diode
SYMATTR Type diode
SYMBOL res 1024 304 R90
WINDOW 0 0 56 VBottom 2
WINDOW 3 32 56 VTop 2
SYMATTR InstName R11
SYMATTR Value 10
SYMBOL npn 784 368 R0
SYMATTR InstName Q3
SYMATTR Value 2N3904
SYMBOL res 832 208 R0
SYMATTR InstName R12
SYMATTR Value 100
SYMBOL res 736 400 R90
WINDOW 0 0 56 VBottom 2
WINDOW 3 32 56 VTop 2
SYMATTR InstName R13
SYMATTR Value 1k
SYMBOL schottky 736 352 R270
WINDOW 0 32 32 VTop 2
WINDOW 3 0 32 VBottom 2
SYMATTR InstName D3
SYMATTR Value MBR0530L
SYMATTR Description Diode
SYMATTR Type diode
SYMBOL voltage -320 672 R0
WINDOW 123 0 0 Left 2
WINDOW 39 0 0 Left 2
SYMATTR InstName V4
SYMATTR Value 12
SYMBOL npn -112 512 R0
SYMATTR InstName Q4
SYMATTR Value 2N3904
SYMBOL res -64 352 R0
SYMATTR InstName R4
SYMATTR Value 100
SYMBOL res -160 544 R90
WINDOW 0 0 56 VBottom 2
WINDOW 3 32 56 VTop 2
SYMATTR InstName R14
SYMATTR Value 1k
SYMBOL schottky -160 496 R270
WINDOW 0 32 32 VTop 2
WINDOW 3 0 32 VBottom 2
SYMATTR InstName D4
SYMATTR Value MBR0530L
SYMATTR Description Diode
SYMATTR Type diode
TEXT -706 840 Left 2 !.tran 10m
