Version 4
SHEET 1 1912 856
WIRE 192 -320 -672 -320
WIRE 1104 -320 192 -320
WIRE 192 -192 192 -320
WIRE 1104 -192 1104 -320
WIRE -224 -112 -304 -112
WIRE 0 -112 -144 -112
WIRE 144 -112 80 -112
WIRE 688 -112 464 -112
WIRE 896 -112 768 -112
WIRE 1056 -112 976 -112
WIRE -304 32 -304 -112
WIRE -304 32 -512 32
WIRE 464 32 464 -112
WIRE 464 32 -208 32
WIRE -672 64 -672 -320
WIRE 192 128 192 -96
WIRE 1712 128 192 128
WIRE 1856 128 1712 128
WIRE -512 160 -512 112
WIRE 1856 160 1856 128
WIRE 1712 176 1712 128
WIRE -672 208 -672 144
WIRE -304 240 -304 32
WIRE 704 240 -304 240
WIRE -208 272 -208 32
WIRE -208 272 -512 272
WIRE 1104 288 1104 -96
WIRE 1712 288 1712 240
WIRE 1712 288 1104 288
WIRE 1856 288 1856 240
WIRE 1856 288 1712 288
WIRE -512 304 -512 272
WIRE 192 384 192 128
WIRE 1104 384 1104 288
WIRE -512 448 -512 384
WIRE -208 464 -208 272
WIRE -144 464 -208 464
WIRE -16 464 -64 464
WIRE 144 464 64 464
WIRE 704 464 704 240
WIRE 864 464 784 464
WIRE 1056 464 944 464
WIRE 192 560 192 480
WIRE 368 560 192 560
WIRE 1104 560 1104 480
WIRE 1104 560 368 560
WIRE 368 656 368 560
WIRE 368 816 368 736
FLAG 368 816 0
FLAG -672 208 0
FLAG -512 160 0
FLAG -512 448 0
SYMBOL nmos 144 384 R0
SYMATTR InstName M2
SYMATTR Value IRFH5020
SYMBOL nmos 1056 384 R0
SYMATTR InstName M4
SYMATTR Value IRFH5020
SYMBOL res 352 640 R0
SYMATTR InstName R1
SYMATTR Value 50m
SYMBOL cap 1696 176 R0
SYMATTR InstName C1
SYMATTR Value 1p
SYMBOL res 1840 144 R0
SYMATTR InstName R2
SYMATTR Value 1
SYMBOL voltage -672 48 R0
WINDOW 123 0 0 Left 2
WINDOW 39 24 124 Left 2
SYMATTR SpiceLine Rser=10m
SYMATTR InstName V1
SYMATTR Value 18
SYMBOL voltage -512 16 R0
WINDOW 123 0 0 Left 2
WINDOW 39 0 0 Left 2
SYMATTR InstName V2
SYMATTR Value PULSE(0 12 50n 20n 20n 55.9u 112u)
SYMBOL voltage -512 288 R0
WINDOW 123 0 0 Left 2
WINDOW 39 0 0 Left 2
SYMATTR InstName V3
SYMATTR Value PULSE(0 12 56.050u 20n 20n 55.9u 112u)
SYMBOL res 992 -128 R90
WINDOW 0 0 56 VBottom 2
WINDOW 3 32 56 VTop 2
SYMATTR InstName R3
SYMATTR Value 10
SYMBOL res 80 448 R90
WINDOW 0 0 56 VBottom 2
WINDOW 3 32 56 VTop 2
SYMATTR InstName R5
SYMATTR Value 10
SYMBOL res 96 -128 R90
WINDOW 0 0 56 VBottom 2
WINDOW 3 32 56 VTop 2
SYMATTR InstName R8
SYMATTR Value 10
SYMBOL res 960 448 R90
WINDOW 0 0 56 VBottom 2
WINDOW 3 32 56 VTop 2
SYMATTR InstName R11
SYMATTR Value 10
SYMBOL nmos 144 -192 R0
SYMATTR InstName M3
SYMATTR Value IRFH5020
SYMBOL nmos 1056 -192 R0
SYMATTR InstName M1
SYMATTR Value IRFH5020
SYMBOL res -128 -128 R90
WINDOW 0 0 56 VBottom 2
WINDOW 3 32 56 VTop 2
SYMATTR InstName R4
SYMATTR Value 10
SYMBOL res 784 -128 R90
WINDOW 0 0 56 VBottom 2
WINDOW 3 32 56 VTop 2
SYMATTR InstName R6
SYMATTR Value 10
SYMBOL res 800 448 R90
WINDOW 0 0 56 VBottom 2
WINDOW 3 32 56 VTop 2
SYMATTR InstName R7
SYMATTR Value 10
SYMBOL res -48 448 R90
WINDOW 0 0 56 VBottom 2
WINDOW 3 32 56 VTop 2
SYMATTR InstName R9
SYMATTR Value 10
TEXT -704 840 Left 2 !.tran 10m
